Circuit: * C:\Users\esteb\Documents\ELEC\battery_model\1cell_model.asc

Direct Newton iteration for .op point succeeded.

Date: Wed Sep 29 01:03:36 2021
Total elapsed time: 0.153 seconds.

tnom = 27
temp = 27
method = modified trap
totiter = 2394
traniter = 2388
tranpoints = 1141
accept = 1127
rejected = 14
matrix size = 12
fillins = 12
solver = Normal
Matrix Compiler1: 814 bytes object code size  0.2/0.1/[0.1]
Matrix Compiler2: off  [0.1]/0.1/0.1

